FoamFile { version 2.0; format ascii; class polyBoundaryMesh; object boundary; }
0
(
)
