FoamFile { version 2.0; format ascii; class dictionary; object createPatchDict; }
patches (
    {
        name bin_1;
        patchInfo { type patch; }
        constructFrom patches;
        patches ( corkscrew );
    }
);
